dss/IEEE30Bus/IEEE_30_Power_seq_kVA.txt

SYMMETRICAL COMPONENT POWERS BY CIRCUIT ELEMENT (first 3 phases)                                     Excess Power

Element             Term    P1(kW)   Q1(kvar)       P2         Q2      P0      Q0       P_Norm      Q_Norm     P_Emerg    Q_Emerg

"Vsource.SOURCE"     1  -260949.9    16613.3       -0.0        0.0    -0.0    -0.0
"Vsource.SOURCE"     2        0.0        0.0        0.0        0.0     0.0     0.0
"Line.1-2"           1   173228.5   -21219.1        0.0       -0.0     0.0     0.0    77009.1    -9433.0    28899.3    -3539.9
"Line.1-2"           2  -168043.7    30908.1       -0.0        0.0    -0.0     0.0
"Line.1-3"           1    87721.4     4605.9        0.0        0.0     0.0     0.0        0.0        0.0        0.0        0.0
"Line.1-3"           2   -84606.7     2361.0       -0.0        0.0    -0.0     0.0
"Line.2-4"           1    43622.3     3981.5        0.0        0.0     0.0    -0.0        0.0        0.0        0.0        0.0
"Line.2-4"           2   -42606.6    -4771.1       -0.0       -0.0    -0.0     0.0
"Line.3-4"           1    82206.6    -3561.1        0.0       -0.0     0.0    -0.0        0.0        0.0        0.0        0.0
"Line.3-4"           2   -81349.1     5156.0       -0.0        0.0    -0.0     0.0
"Line.2-5"           1    82395.7     1786.4        0.0       -0.0     0.0    -0.0        0.0        0.0        0.0        0.0
"Line.2-5"           2   -79443.2     6212.0       -0.0        0.0    -0.0     0.0
"Line.2-6"           1    60326.0      624.3        0.0       -0.0     0.0    -0.0        0.0        0.0        0.0        0.0
"Line.2-6"           2   -58378.8     1342.4       -0.0        0.0    -0.0     0.0
"Line.4-6"           1    72110.6   -15932.4        0.0       -0.0     0.0    -0.0        0.0        0.0        0.0        0.0
"Line.4-6"           2   -71478.2    17213.2       -0.0        0.0    -0.0     0.0
"Line.5-7"           1   -14758.5    11817.4       -0.0        0.0    -0.0     0.0        0.0        0.0        0.0        0.0
"Line.5-7"           2    14931.2   -13446.7        0.0       -0.0     0.0    -0.0
"Line.6-7"           1    38113.5    -3095.3        0.0       -0.0     0.0    -0.0        0.0        0.0        0.0        0.0
"Line.6-7"           2   -37732.0     2546.3       -0.0        0.0    -0.0     0.0
"Line.6-8"           1    29559.4    -7285.0        0.0       -0.0     0.0    -0.0        0.0        0.0        0.0        0.0
"Line.6-8"           2   -29451.1     6746.5       -0.0        0.0    -0.0     0.0
"Line.12-14"         1     7868.6     2424.2        0.0        0.0     0.0    -0.0        0.0        0.0        0.0        0.0
"Line.12-14"         2    -7794.0    -2269.1       -0.0       -0.0    -0.0     0.0
"Line.12-15"         1    17918.2     6889.6        0.0        0.0     0.0    -0.0        0.0        0.0        0.0        0.0
"Line.12-15"         2   -17700.1    -6460.1       -0.0       -0.0    -0.0     0.0
"Line.12-16"         1     7260.2     3455.5        0.0        0.0     0.0    -0.0        0.0        0.0        0.0        0.0
"Line.12-16"         2    -7205.6    -3340.6       -0.0       -0.0    -0.0     0.0
"Line.14-15"         1     1594.6      669.2        0.0        0.0     0.0    -0.0        0.0        0.0        0.0        0.0
"Line.14-15"         2    -1588.5     -663.8       -0.0       -0.0    -0.0     0.0
"Line.16-17"         1     3705.8     1540.8        0.0        0.0     0.0    -0.0        0.0        0.0        0.0        0.0
"Line.16-17"         2    -3698.1    -1512.4       -0.0       -0.0    -0.0     0.0
"Line.15-18"         1     6031.4     1650.0        0.0        0.0     0.0    -0.0        0.0        0.0        0.0        0.0
"Line.15-18"         2    -5992.5    -1570.7       -0.0       -0.0    -0.0     0.0
"Line.18-19"         1     2792.7      670.8        0.0        0.0     0.0    -0.0        0.0        0.0        0.0        0.0
"Line.18-19"         2    -2787.7     -660.7       -0.0       -0.0    -0.0     0.0
"Line.19-20"         1    -6711.8    -2739.1       -0.0       -0.0    -0.0     0.0        0.0        0.0        0.0        0.0
"Line.19-20"         2     6728.8     2773.1        0.0        0.0     0.0    -0.0
"Line.10-20"         1     9009.7     3653.9        0.0        0.0     0.0    -0.0        0.0        0.0        0.0        0.0
"Line.10-20"         2    -8928.7    -3473.1       -0.0       -0.0    -0.0     0.0
"Line.10-17"         1     5315.5     4323.7        0.0        0.0     0.0     0.0        0.0        0.0        0.0        0.0
"Line.10-17"         2    -5301.6    -4287.4       -0.0       -0.0    -0.0    -0.0
"Line.10-21"         1    15786.7    10003.2        0.0        0.0     0.0    -0.0        0.0        0.0        0.0        0.0
"Line.10-21"         2   -15675.5    -9763.8       -0.0       -0.0    -0.0     0.0
"Line.10-22"         1     7619.1     4595.1        0.0        0.0     0.0    -0.0        0.0        0.0        0.0        0.0
"Line.10-22"         2    -7566.4    -4486.5       -0.0       -0.0    -0.0     0.0
"Line.21-22"         1    -1824.1    -1435.9       -0.0       -0.0    -0.0    -0.0        0.0        0.0        0.0        0.0
"Line.21-22"         2     1824.7     1437.1        0.0        0.0     0.0     0.0
"Line.15-23"         1     5057.8     2974.0        0.0        0.0     0.0    -0.0        0.0        0.0        0.0        0.0
"Line.15-23"         2    -5025.8    -2909.5       -0.0       -0.0    -0.0     0.0
"Line.22-24"         1     5741.7     3049.3        0.0        0.0     0.0    -0.0        0.0        0.0        0.0        0.0
"Line.22-24"         2    -5696.2    -2978.5       -0.0       -0.0    -0.0     0.0
"Line.23-24"         1     1826.0     1309.6        0.0        0.0     0.0    -0.0        0.0        0.0        0.0        0.0
"Line.23-24"         2    -1819.7    -1296.7       -0.0       -0.0    -0.0     0.0
"Line.24-25"         1    -1183.8     2064.4       -0.0        0.0    -0.0     0.0        0.0        0.0        0.0        0.0
"Line.24-25"         2     1194.0    -2046.6        0.0       -0.0     0.0    -0.0
"Line.25-26"         1     3544.6     2366.7        0.0        0.0     0.0    -0.0        0.0        0.0        0.0        0.0
"Line.25-26"         2    -3500.0    -2300.0       -0.0       -0.0    -0.0     0.0
"Line.25-27"         1    -4738.7     -320.1       -0.0       -0.0    -0.0     0.0        0.0        0.0        0.0        0.0
"Line.25-27"         2     4762.5      365.6        0.0        0.0     0.0    -0.0
"Line.27-29"         1     6190.2     1669.0        0.0        0.0     0.0    -0.0        0.0        0.0        0.0        0.0
"Line.27-29"         2    -6103.8    -1506.0       -0.0       -0.0    -0.0     0.0
"Line.27-30"         1     7092.3     1663.1        0.0        0.0     0.0    -0.0        0.0        0.0        0.0        0.0
"Line.27-30"         2    -6929.9    -1357.5       -0.0       -0.0    -0.0     0.0
"Line.29-30"         1     3703.8      605.9        0.0        0.0     0.0    -0.0        0.0        0.0        0.0        0.0
"Line.29-30"         2    -3670.2     -542.5       -0.0       -0.0    -0.0     0.0
"Line.8-28"          1     -549.8     -539.1       -0.0       -0.0     0.0     0.0        0.0        0.0        0.0        0.0
"Line.8-28"          2      551.7    -3803.1        0.0       -0.0    -0.0    -0.0
"Line.6-28"          1    18654.3       61.5        0.0       -0.0     0.0    -0.0        0.0        0.0        0.0        0.0
"Line.6-28"          2   -18596.6    -1178.3       -0.0        0.0    -0.0     0.0
"Transformer.6-9"    1    27702.4    -8320.7        0.0       -0.0     0.0    -0.0        0.0        0.0        0.0        0.0
"Transformer.6-9"    2   -27702.4     9952.5       -0.0        0.0    -0.0     0.0
"Transformer.6-10"   1    15827.3       84.0        0.0       -0.0     0.0    -0.0        0.0        0.0        0.0        0.0
"Transformer.6-10"   2   -15827.3     1198.1       -0.0        0.0    -0.0     0.0
"Transformer.9-11"   1       -1.1   -15765.9       -0.0       -0.0    -0.0    -0.0        0.0        0.0        0.0        0.0
"Transformer.9-11"   2        1.1    16234.0        0.0        0.0     0.0     0.0
"Transformer.9-10"   1    27703.5     5813.4        0.0        0.0     0.0    -0.0        0.0        0.0        0.0        0.0
"Transformer.9-10"   2   -27703.5    -5015.4       -0.0       -0.0    -0.0     0.0
"Transformer.4-12"   1    44244.9    13947.5        0.0        0.0     0.0    -0.0        0.0        0.0        0.0        0.0
"Transformer.4-12"   2   -44244.9    -9271.3       -0.0       -0.0    -0.0     0.0
"Transformer.12-13"  1       -1.0   -10997.2       -0.0       -0.0    -0.0    -0.0        0.0        0.0        0.0        0.0
"Transformer.12-13"  2        1.0    11148.6        0.0        0.0     0.0     0.0
"Transformer.28-27"  1    18044.9     4981.4        0.0        0.0     0.0    -0.0        0.0        0.0        0.0        0.0
"Transformer.28-27"  2   -18044.9    -3697.7       -0.0       -0.0    -0.0     0.0
"Capacitor.B10"      1       -0.0   -20758.5       -0.0       -0.0    -0.0    -0.0        0.0        0.0        0.0        0.0
"Capacitor.B10"      2        0.0        0.0        0.0        0.0     0.0     0.0
"Capacitor.B24"      1       -0.0    -4489.0       -0.0       -0.0    -0.0    -0.0        0.0        0.0        0.0        0.0
"Capacitor.B24"      2        0.0        0.0        0.0        0.0     0.0     0.0
"Load.B2"            1    21700.1    12700.0        0.0        0.0     0.0     0.0
"Load.B3"            1     2400.0     1200.0        0.0        0.0     0.0     0.0
"Load.B4"            1     7600.1     1600.0        0.0        0.0     0.0    -0.0
"Load.B5"            1    94201.3    19000.3        0.0        0.0     0.0    -0.0
"Load.B7"            1    22800.4    10900.1        0.0        0.0     0.0    -0.0
"Load.B8"            1    30001.4    30000.9        0.0        0.0     0.0     0.0
"Load.B10"           1     5799.9     1999.9        0.0        0.0     0.0    -0.0
"Load.B12"           1    11199.5     7499.7        0.0        0.0     0.0     0.0
"Load.B14"           1     6199.7     1599.9        0.0        0.0     0.0    -0.0
"Load.B15"           1     8199.7     2499.9        0.0        0.0     0.0    -0.0
"Load.B16"           1     3499.9     1799.9        0.0        0.0     0.0    -0.0
"Load.B17"           1     8999.9     5799.8        0.0        0.0     0.0    -0.0
"Load.B18"           1     3199.9      900.0        0.0        0.0     0.0    -0.0
"Load.B19"           1     9499.8     3399.9        0.0        0.0     0.0    -0.0
"Load.B20"           1     2200.0      700.0        0.0        0.0     0.0    -0.0
"Load.B21"           1    17499.9    11199.7        0.0        0.0     0.0    -0.0
"Load.B23"           1     3199.9     1599.9        0.0        0.0     0.0    -0.0
"Load.B24"           1     8699.9     6699.9        0.0        0.0     0.0    -0.0
"Load.B26"           1     3500.0     2300.0        0.0        0.0     0.0    -0.0
"Load.B29"           1     2400.0      900.0        0.0        0.0     0.0    -0.0
"Load.B30"           1    10600.1     1899.9        0.0        0.0     0.0    -0.0
"Generator.B2"       1   -40000.3   -50000.2       -0.0       -0.0    -0.0    -0.0
"Generator.B5"       1       -1.0   -37029.9       -0.0       -0.0    -0.0    -0.0
"Generator.B8"       1       -1.3   -36209.7       -0.0       -0.0    -0.0    -0.0
"Generator.B11"      1       -1.1   -16234.0       -0.0       -0.0    -0.0    -0.0
"Generator.B13"      1       -1.0   -11148.6       -0.0       -0.0    -0.0    -0.0

Total Circuit Losses = 17553.2 +j 33055.8
