dss/IEEE30Bus/IEEE_30_VLN_Node.Txt

LINE-GROUND and LINE-LINE VOLTAGES BY BUS & NODE

Bus  Node    VLN (kV)   Angle      pu     Base kV    Node-Node   VLL (kV)  Angle      pu

B1 . 1       80.782 /_    0.0      1.06   132.000        1-2     139.92 /_   30.0      1.06
   - 2       80.782 /_ -120.0      1.06   132.000        2-3     139.92 /_  -90.0      1.06
   - 3       80.782 /_  120.0      1.06   132.000        3-1     139.92 /_  150.0      1.06
B2 . 1       79.492 /_   -5.4    1.0431   132.000        1-2     137.68 /_   24.6    1.0431
   - 2       79.492 /_ -125.4    1.0431   132.000        2-3     137.68 /_  -95.4    1.0431
   - 3       79.492 /_  114.6    1.0431   132.000        3-1     137.68 /_  144.6    1.0431
B3 . 1       77.783 /_   -7.5    1.0206   132.000        1-2     134.72 /_   22.5    1.0206
   - 2       77.783 /_ -127.5    1.0206   132.000        2-3     134.72 /_  -97.5    1.0206
   - 3       77.783 /_  112.5    1.0206   132.000        3-1     134.72 /_  142.5    1.0206
B4 . 1       77.097 /_   -9.3    1.0116   132.000        1-2     133.54 /_   20.7    1.0116
   - 2       77.097 /_ -129.3    1.0116   132.000        2-3     133.54 /_  -99.3    1.0116
   - 3       77.097 /_  110.7    1.0116   132.000        3-1     133.54 /_  140.7    1.0116
B5 . 1       76.972 /_  -14.2      1.01   132.000        1-2     133.32 /_   15.8      1.01
   - 2       76.972 /_ -134.2      1.01   132.000        2-3     133.32 /_ -104.2      1.01
   - 3       76.972 /_  105.8      1.01   132.000        3-1     133.32 /_  135.8      1.01
B6 . 1        76.97 /_  -11.1      1.01   132.000        1-2     133.32 /_   18.9      1.01
   - 2        76.97 /_ -131.1      1.01   132.000        2-3     133.32 /_ -101.1      1.01
   - 3        76.97 /_  108.9      1.01   132.000        3-1     133.32 /_  138.9      1.01
B7 . 1       76.378 /_  -12.9    1.0022   132.000        1-2     132.29 /_   17.1    1.0022
   - 2       76.378 /_ -132.9    1.0022   132.000        2-3     132.29 /_ -102.9    1.0022
   - 3       76.378 /_  107.1    1.0022   132.000        3-1     132.29 /_  137.1    1.0022
B8 . 1       76.926 /_  -11.8    1.0094   132.000        1-2     133.24 /_   18.2    1.0094
   - 2       76.926 /_ -131.8    1.0094   132.000        2-3     133.24 /_ -101.8    1.0094
   - 3       76.926 /_  108.2    1.0094   132.000        3-1     133.24 /_  138.2    1.0094
B12  1       20.152 /_  -14.9    1.0577    33.000        1-2     34.905 /_   15.1    1.0577
   - 2       20.152 /_ -134.9    1.0577    33.000        2-3     34.905 /_ -104.9    1.0577
   - 3       20.152 /_  105.1    1.0577    33.000        3-1     34.905 /_  135.1    1.0577
B14  1       19.868 /_  -15.8    1.0428    33.000        1-2     34.413 /_   14.2    1.0428
   - 2       19.868 /_ -135.8    1.0428    33.000        2-3     34.413 /_ -105.8    1.0428
   - 3       19.868 /_  104.2    1.0428    33.000        3-1     34.413 /_  134.2    1.0428
B15  1        19.78 /_  -15.9    1.0382    33.000        1-2     34.259 /_   14.1    1.0382
   - 2        19.78 /_ -135.9    1.0382    33.000        2-3     34.259 /_ -105.9    1.0382
   - 3        19.78 /_  104.1    1.0382    33.000        3-1     34.259 /_  134.1    1.0382
B16  1       19.906 /_  -15.5    1.0448    33.000        1-2     34.478 /_   14.5    1.0448
   - 2       19.906 /_ -135.5    1.0448    33.000        2-3     34.478 /_ -105.5    1.0448
   - 3       19.906 /_  104.5    1.0448    33.000        3-1     34.478 /_  134.5    1.0448
B17  1       19.817 /_  -15.9    1.0401    33.000        1-2     34.324 /_   14.1    1.0401
   - 2       19.817 /_ -135.9    1.0401    33.000        2-3     34.324 /_ -105.9    1.0401
   - 3       19.817 /_  104.1    1.0401    33.000        3-1     34.324 /_  134.1    1.0401
B18  1       19.596 /_  -16.5    1.0285    33.000        1-2     33.941 /_   13.5    1.0285
   - 2       19.596 /_ -136.5    1.0285    33.000        2-3     33.941 /_ -106.5    1.0285
   - 3       19.596 /_  103.5    1.0285    33.000        3-1     33.941 /_  133.5    1.0285
B19  1       19.547 /_  -16.7    1.0259    33.000        1-2     33.856 /_   13.3    1.0259
   - 2       19.547 /_ -136.7    1.0259    33.000        2-3     33.856 /_ -106.7    1.0259
   - 3       19.547 /_  103.3    1.0259    33.000        3-1     33.856 /_  133.3    1.0259
B20  1       19.624 /_  -16.5      1.03    33.000        1-2      33.99 /_   13.5      1.03
   - 2       19.624 /_ -136.5      1.03    33.000        2-3      33.99 /_ -106.5      1.03
   - 3       19.624 /_  103.5      1.03    33.000        3-1      33.99 /_  133.5      1.03
B10  1       19.915 /_  -15.7    1.0453    33.000        1-2     34.493 /_   14.3    1.0453
   - 2       19.915 /_ -135.7    1.0453    33.000        2-3     34.493 /_ -105.7    1.0453
   - 3       19.915 /_  104.3    1.0453    33.000        3-1     34.493 /_  134.3    1.0453
B21  1       19.679 /_  -16.1    1.0329    33.000        1-2     34.084 /_   13.9    1.0329
   - 2       19.679 /_ -136.1    1.0329    33.000        2-3     34.084 /_ -106.1    1.0329
   - 3       19.679 /_  103.9    1.0329    33.000        3-1     34.084 /_  133.9    1.0329
B22  1       19.689 /_  -16.1    1.0334    33.000        1-2     34.102 /_   13.9    1.0334
   - 2       19.689 /_ -136.1    1.0334    33.000        2-3     34.102 /_ -106.1    1.0334
   - 3       19.689 /_  103.9    1.0334    33.000        3-1     34.102 /_  133.9    1.0334
B23  1       19.577 /_  -16.3    1.0275    33.000        1-2     33.908 /_   13.7    1.0275
   - 2       19.577 /_ -136.3    1.0275    33.000        2-3     33.908 /_ -106.3    1.0275
   - 3       19.577 /_  103.7    1.0275    33.000        3-1     33.908 /_  133.7    1.0275
B24  1       19.467 /_  -16.5    1.0217    33.000        1-2     33.718 /_   13.5    1.0217
   - 2       19.467 /_ -136.5    1.0217    33.000        2-3     33.718 /_ -106.5    1.0217
   - 3       19.467 /_  103.5    1.0217    33.000        3-1     33.718 /_  133.5    1.0217
B25  1       19.382 /_  -16.1    1.0173    33.000        1-2     33.571 /_   13.9    1.0173
   - 2       19.382 /_ -136.1    1.0173    33.000        2-3     33.571 /_ -106.1    1.0173
   - 3       19.382 /_  103.9    1.0173    33.000        3-1     33.571 /_  133.9    1.0173
B26  1       19.045 /_  -16.5   0.99963    33.000        1-2     32.988 /_   13.5   0.99963
   - 2       19.045 /_ -136.5   0.99963    33.000        2-3     32.988 /_ -106.5   0.99963
   - 3       19.045 /_  103.5   0.99963    33.000        3-1     32.988 /_  133.5   0.99963
B27  1       19.493 /_  -15.5    1.0231    33.000        1-2     33.762 /_   14.5    1.0231
   - 2       19.493 /_ -135.5    1.0231    33.000        2-3     33.762 /_ -105.5    1.0231
   - 3       19.493 /_  104.5    1.0231    33.000        3-1     33.762 /_  134.5    1.0231
B29  1       19.115 /_  -16.8    1.0033    33.000        1-2     33.107 /_   13.2    1.0033
   - 2       19.115 /_ -136.8    1.0033    33.000        2-3     33.107 /_ -106.8    1.0033
   - 3       19.115 /_  103.2    1.0033    33.000        3-1     33.107 /_  133.2    1.0033
B30  1       18.896 /_  -17.7   0.99178    33.000        1-2     32.729 /_   12.3   0.99178
   - 2       18.896 /_ -137.7   0.99178    33.000        2-3     32.729 /_ -107.7   0.99178
   - 3       18.896 /_  102.3   0.99178    33.000        3-1     32.729 /_  132.3   0.99178
B28  1       76.704 /_  -11.7    1.0065   132.000        1-2     132.86 /_   18.3    1.0065
   - 2       76.704 /_ -131.7    1.0065   132.000        2-3     132.86 /_ -101.7    1.0065
   - 3       76.704 /_  108.3    1.0065   132.000        3-1     132.86 /_  138.3    1.0065
B9 . 1      0.60676 /_  -14.1    1.0509     1.000        1-2     1.0509 /_   15.9    1.0509
   - 2      0.60676 /_ -134.1    1.0509     1.000        2-3     1.0509 /_ -104.1    1.0509
   - 3      0.60676 /_  105.9    1.0509     1.000        3-1     1.0509 /_  135.9    1.0509
B11  1       6.8725 /_  -14.1    1.0821    11.000        1-2     11.904 /_   15.9    1.0821
   - 2       6.8725 /_ -134.1    1.0821    11.000        2-3     11.904 /_ -104.1    1.0821
   - 3       6.8725 /_  105.9    1.0821    11.000        3-1     11.904 /_  135.9    1.0821
B13  1       6.8098 /_  -14.9    1.0723    11.000        1-2     11.795 /_   15.1    1.0723
   - 2       6.8098 /_ -134.9    1.0723    11.000        2-3     11.795 /_ -104.9    1.0723
   - 3       6.8098 /_  105.1    1.0723    11.000        3-1     11.795 /_  135.1    1.0723
